LTspice 24.1.8 for Windows
Circuit: C:\Users\HP\eda\designs\ChipAcharya\DSM\DSM_1storder\Schematic_Level\dsm_l1.net
Start Time: Mon Mar  9 14:45:05 2026
Options: plotwinsize=0
solver = Normal
Maximum thread count: 12
tnom = 27
temp = 27
method = modified trap
Per .tran options, skipping operating point for transient analysis.
Total elapsed time: 10.161 seconds.

Files loaded:
C:\Users\HP\eda\designs\ChipAcharya\DSM\DSM_1storder\Schematic_Level\dsm_l1.net

